Hello Git!
<<<<<<< HEAD
Today is 2019.7.2
=======
New line.
>>>>>>> b68726c6064cdfbe015734d943112142e2cee509
